Version 4
SHEET 1 1216 680
WIRE 448 -704 128 -704
WIRE 448 -624 448 -704
WIRE 576 -624 448 -624
WIRE 576 -592 576 -624
WIRE 448 -480 448 -624
WIRE 128 -464 128 -704
WIRE 576 -464 576 -512
WIRE 576 -464 496 -464
WIRE 640 -464 576 -464
WIRE 752 -464 720 -464
WIRE 752 -400 752 -464
WIRE 448 -160 448 -384
WIRE 128 -48 128 -384
WIRE 448 -48 448 -80
WIRE 448 -48 128 -48
WIRE 752 -48 752 -320
WIRE 752 -48 448 -48
WIRE 448 16 448 -48
FLAG 448 16 0
SYMBOL Contrib\\Toshiba\\pmos\\2SJ168 496 -384 R180
SYMATTR InstName U1
SYMBOL voltage 128 -480 R0
WINDOW 123 0 0 Left 0
WINDOW 39 0 0 Left 0
SYMATTR InstName V1
SYMATTR Value 5
SYMBOL res 560 -608 R0
SYMATTR InstName R1
SYMATTR Value 1k
SYMBOL voltage 752 -416 R0
WINDOW 123 24 44 Left 2
WINDOW 39 0 0 Left 0
SYMATTR InstName V2
SYMATTR Value PULSE(0 3.3 0 0 0 0.01m 0.0263m)
SYMATTR Value2 AC 1
SYMBOL res 432 -176 R0
SYMATTR InstName R2
SYMATTR Value 2.5
SYMBOL res 736 -480 R90
WINDOW 0 0 56 VBottom 2
WINDOW 3 32 56 VTop 2
SYMATTR InstName R3
SYMATTR Value 1k
TEXT 40 88 Left 2 !;tran 0.1m
TEXT 40 128 Left 2 !.ac oct 5m 10 100k
